4
Coordinates from ORCA-job actividad2_Q2002B
  N   -6.43820776000000      2.34235685600000      0.03809826090000
  H   -5.42088001060000      2.34793262540000     -0.01998926280000
  H   -6.74980620770000      1.58273162210000     -0.56542217000000
  H   -6.74980913490000      3.20288741200000     -0.40995614030000
