4
Coordinates from ORCA-job .\FeOOH_input_ad_comp
  Fe  -1.87382199430248      2.82980507811672     -0.00068433019664
  O   -2.69208180048919      1.52743612923293      0.00028090910509
  O   -0.25274064204615      3.18536104419815      0.00067184619918
  H   0.57330643683782      2.66602774845218     -0.00026942510763
