4
Coordinates from ORCA-job CoOOH_COMPLETE
  Co  -1.77379513526377      2.57748196411815     -0.00000009438427
  O   -2.99616455972435      1.63776142139951     -0.00000092990173
  O   -0.21934014507317      3.07276202818305      0.00000008823495
  H   0.74396184006129      2.92062458629928     -0.00000006394895
