9
Coordinates from ORCA-job inputAdvance
  O   -0.43351172870000      0.37000441470000      1.83194532170000
  O   1.53536115960000      1.32559363300000      0.34253214740000
  O   1.31329043010000     -1.40207766100000     -0.42245880970000
  O   -1.06044562730000     -1.32567935790000      0.26690319120000
  O   -1.59237008870000      0.96565325500000      0.02779533130000
  O   -0.20928007770000     -0.04848640630000     -1.92395212420000
  O   2.77490039620000     -0.18017857670000      2.28957521910000
  Co  1.30834029520000     -0.26900918330000      1.19234349800000
  Mn  0.14901273670000      0.14293940640000     -0.04011396330000
