13
Coordinates from ORCA-job .\FeTi_solv_input_ad_comp
  O   0.91463077835903      0.98350980561346      1.27340331981669
  O   3.51144056000868      0.26742198784320      0.63449080425219
  O   1.23497092844979     -1.13867785629658      0.02833116790321
  O   -1.67432952132377     -0.62678145978596      0.21181731282215
  O   -3.44219172459868      1.23496726344855     -0.73770695925183
  O   -0.78187466008915      0.91867146276503     -1.51068767776733
  O   2.17831145065968     -1.32339898585470      2.48442049622525
  Fe  2.16549518977142     -0.21653224660168      1.19370367155522
  Ti  -0.05434382173668      0.12598590900583     -0.02276935019260
  O   -2.78998494817497     -1.08822420266962     -2.09922781504880
  Fe  -2.33911301715520      0.25239799414213     -1.15455640233418
  H   -3.09916544831277     -0.78897013921851     -2.99202064878380
  H   2.64211823414265     -0.92574953239114      3.26659208080384
