9
Coordinates from ORCA-job input
  O   -0.74696105410751     -0.10135358904945      1.31832137685833
  O   1.15905778985630      1.06779904206343      0.42836644823459
  O   1.04920929896894     -1.08715725844196     -0.48658980925336
  O   -1.37098038122730     -1.02331284709836      0.29930539084630
  O   -1.48384288401498      1.24599410528110      0.78520290104570
  O   0.60738001391816     -0.40449403289097     -1.94528943483447
  O   3.49992396066952      0.04205274177408      2.35379957106192
  Co  1.35482236126868     -0.38448719961966      1.21424517237591
  Mn  -0.28331160993181      0.22371856188179     -0.40279180483493
