4
Coordinates from ORCA-job .\TiOOH_solv_input_ad_comp
  Ti  -2.03108811874990      3.02385446346433      0.00000089543990
  O   -2.37200305935165      1.45042651132986     -0.00000136820826
  O   -0.26470360325644      3.21438761486319     -0.00000026304671
  H   0.42245678135800      2.51996141034260     -0.00000026418492
