4
Coordinates from ORCA-job CoOOH_Solv_COMPLETE
  Co  -1.76357157916318      2.55884355676283     -0.00000009216185
  O   -3.01742850689848      1.65048311813996     -0.00000092974351
  O   -0.22056103523106      3.05223888767883      0.00000005734094
  H   0.75622312129272      2.94706443741838     -0.00000003543558
