4
Coordinates from ORCA-job .\FeOOH_solv_input_ad_comp
  Fe  -1.87036512797302      2.83441457750833      0.00000203887550
  O   -2.69709859214164      1.52806928319922     -0.00000197970440
  O   -0.25630800040107      3.18155478315767     -0.00000078389539
  H   0.57843372051574      2.66459135613477     -0.00000027527571
