13
Coordinates from ORCA-job .\FeTi_input_ad_comp
  O   0.37698119934347     -0.10768797364073      1.66665546999566
  O   2.54420531889559      1.56303846228140      2.01978256067520
  O   1.93945348706154      0.06478318948451     -0.25407755249739
  O   -0.91096309498000     -1.37809831967798     -0.77127654484868
  O   -0.99122296204785      1.08774684990228     -1.02945447238153
  O   -1.66037418763944     -0.41850905991717     -3.25352251446576
  O   2.53239549432989     -1.15298866229503      2.36082239535635
  Fe  2.09447563597400      0.21464596350396      1.44990330294401
  Ti  0.10744999354563     -0.04783208310440     -0.12492659021122
  O   -3.39276655549020     -0.51492423525188     -1.07099383183761
  Fe  -1.84725885162284     -0.24720992805168     -1.74236730483880
  H   -4.03587751196622      0.13382392093635     -1.44553934456059
  H   1.70946603459642     -1.52216812416961      2.77078442667036
