4
Coordinates from ORCA-job MnOOH_COMPLETE
  Mn  -1.51335512622382      1.74350791974111     -0.14372022302763
  O   -2.83607979440657      2.41605284009111      0.20362551009451
  O   -0.10799193501792      2.63350465630302     -0.27372003922715
  H   0.21208885564832      3.41556458386473      0.21381375216027
